  
       XFOIL         Version 6.94
  
 Calculated polar for: Prandtl root                                    
  
 1 1 Reynolds number fixed          Mach number fixed         
  
 xtrf =   1.000 (top)        1.000 (bottom)  
 Mach =   0.000     Re =     0.100 e 6     Ncrit =   9.000
  
  alpha     CL        CD       CDp       CM    Top_Xtr Bot_Xtr
 ------- -------- --------- --------- -------- ------- -------
  -7.000  -0.2664   0.07942   0.07542  -0.0579  0.9650  0.1141
  -6.000  -0.2629   0.06639   0.06220  -0.0737  0.9056  0.1431
  -5.000  -0.3073   0.04159   0.03537  -0.0693  0.8640  0.0674
  -4.000  -0.2446   0.03206   0.02405  -0.0611  0.8325  0.0667
  -3.000  -0.1571   0.02662   0.01790  -0.0564  0.8079  0.1018
  -2.000  -0.0677   0.02375   0.01526  -0.0523  0.7841  0.2135
  -1.000   0.0235   0.02127   0.01440  -0.0490  0.7617  0.5900
   0.000   0.3185   0.02043   0.01328  -0.0816  0.7463  1.0000
   1.000   0.4075   0.02164   0.01403  -0.0785  0.7248  1.0000
   2.000   0.4937   0.02368   0.01581  -0.0760  0.6997  1.0000
   3.000   0.5698   0.02669   0.01873  -0.0729  0.6751  1.0000
   4.000   0.6417   0.02956   0.02165  -0.0681  0.6510  1.0000
   5.000   0.7416   0.02958   0.02163  -0.0634  0.6321  1.0000
   6.000   0.8086   0.03212   0.02436  -0.0577  0.6025  1.0000
   7.000   0.9391   0.02614   0.01846  -0.0514  0.5646  1.0000
   8.000   1.0359   0.02304   0.01555  -0.0448  0.5120  1.0000
   9.000   1.1178   0.02128   0.01391  -0.0373  0.4316  1.0000
  10.000   1.1566   0.02332   0.01609  -0.0266  0.3422  1.0000
  11.000   1.1255   0.02867   0.02102  -0.0100  0.2350  1.0000
  12.000   1.0836   0.03866   0.03050  -0.0007  0.1209  1.0000
  13.000   1.0444   0.05121   0.04255   0.0046  0.0506  1.0000
  14.000   1.0378   0.06186   0.05351   0.0079  0.0413  1.0000
  15.000   1.0970   0.06666   0.05867   0.0158  0.0373  1.0000
